FoamFile
{
  version 2.0;
  format ascii;
  class dictionary;
  location "constant";
  object transportProperties;
}

solveTD		no;

scalingFactor 1;

temp 285.85;

Rh // list of rainfall intensities [mm/h], for which gcr will be written
(
    30
);

phases // raindrop diameters [mm]
(
    0.5
    1
    2
    5
);

inletAlpha
(
    1
    1
    1
    1
);
