/*--------------------------------*- C++ -*----------------------------------*\
| =========                 |                                                 |
| \\      /  F ield         | OpenFOAM: The Open Source CFD Toolbox           |
|  \\    /   O peration     | Version:  2.2.2                                 |
|   \\  /    A nd           | Web:      www.OpenFOAM.org                      |
|    \\/     M anipulation  |                                                 |
\*---------------------------------------------------------------------------*/
FoamFile
{
    version     2.0;
    format      ascii;
    class       dictionary;
    object      changeDictionaryDict;
}
// * * * * * * * * * * * * * * * * * * * * * * * * * * * * * * * * * * * * * //

"alpha1"
{
    boundaryField
    {
        wall
        {
            phi phi1;
        }
        outlet
        {
            phi phi1;
        }

    }
}

"alpha2"
{
    boundaryField
    {
        wall
        {
            phi phi2;
        }
        outlet
        {
            phi phi2;
        }

    }
}

"alpha3"
{
    boundaryField
    {
        wall
        {
            phi phi3;
        }
        outlet
        {
            phi phi3;
        }

    }
}

"alpha4"
{
    boundaryField
    {
        wall
        {
            phi phi4;
        }
        outlet
        {
            phi phi4;
        }

    }
}
// ************************************************************************* //
