FoamFile
{
  version 2.0;
  format ascii;
  class dictionary;
  location "system";
  object fvSolution;
}

solvers
{
  "U.*"
  {
    solver PBiCGStab;
    preconditioner DILU;
    tolerance 1e-8;
    relTol 0.1;
    minIter   1;
  }

  "alpha.*"
  {
    solver PBiCG;
    preconditioner DILU;
    tolerance 1e-9;
    relTol 0.1;
    minIter   1;
  }
}

PIMPLE
{
  nNonOrthogonalCorrectors 0;
  rDeltaTSmoothingCoeff    0.1;
  rDeltaTDampingCoeff      0.5;
  maxCo                   0.9;
  maxDeltaT               1;
}

relaxationFactors
{
/*
  fields
  {
    "alpha.*" 0.9;
    "U.*" 0.9;
  }

  equations
  {
    "alpha.*" 0.7;
    "U.*" 0.9;
  }
*/
}
